*Heading
UEL_DLO_article
**
************************************************************************
** UNIT SYSTEM
************************************************************************
**
** UNITS: Length - meters, Time - sec, Angle - radians,
** Temperature - Kelvin, Force - Newtons,
** Stress - Newton/meter^2 = Pa, Mass - kilograms,
** Density - kg/meter^3, Conductivity - Watt/m-K,
** Specific Heat - J/kg-K, Energy - Joules,
** Chemical potential - Joules/mole,
** Fluid content - moles/volume
**
*Node
      1, 0.00300000003, 0.00270000007
      2,           0., 0.00270000007
      3,           0.,           0.
      4, 0.00300000003,           0.
      5, 0.00300000003, 0.00300000003
      6,           0., 0.00300000003
      7, 0.00270000007, 0.00270000007
      8, 0.00240000011, 0.00270000007
      9, 0.00209999993, 0.00270000007
     10, 0.00179999997, 0.00270000007
     11, 0.00150000001, 0.00270000007
     12, 0.00120000006, 0.00270000007
     13, 0.000899999985, 0.00270000007
     14, 0.000600000028, 0.00270000007
     15, 0.000300000014, 0.00270000007
     16,           0., 0.00240000011
     17,           0., 0.00209999993
     18,           0., 0.00179999997
     19,           0., 0.00150000001
     20,           0., 0.00120000006
** ... 112 like lines cut
**
*User Element,Type=U1,Nodes=4,Coordinates=2,Properties=7,Iproperties=2,Variables=2,Unsymm
1,2,11
*Element, type=U1
 1,   1,   7,  52,  40
 2,   7,   8,  53,  52
 3,   8,   9,  54,  53
 4,   9,  10,  55,  54
 5,  10,  11,  56,  55
 6,  11,  12,  57,  56
 7,  12,  13,  58,  57
 8,  13,  14,  59,  58
 9,  14,  15,  60,  59
10,  15,   2,  16,  60
11,  40,  52,  61,  39
12,  52,  53,  62,  61
13,  53,  54,  63,  62
14,  54,  55,  64,  63
15,  55,  56,  65,  64
16,  56,  57,  66,  65
17,  57,  58,  67,  66
18,  58,  59,  68,  67
19,  59,  60,  69,  68
20,  60,  16,  17,  69
** ... 90 like lines cut
**
** Create the ‘‘dummy’’ mesh used for visualization.
** These ‘‘dummy’’ elements have the same connectivity, and use the same nodes,
** however their element number (first column) is offset by a constant, in this case 1000.
**
** IMPORTANT: This constant offset must also be set in the UVARM subroutine in
** the ElemOffset=1000 variable
*Element, type=CPE4R
1001,   1,   7,  52,  40
1002,   7,   8,  53,  52
1003,   8,   9,  54,  53
1004,   9,  10,  55,  54
1005,  10,  11,  56,  55
1006,  11,  12,  57,  56
1007,  12,  13,  58,  57
1008,  13,  14,  59,  58
1009,  14,  15,  60,  59
1010,  15,   2,  16,  60
1011,  40,  52,  61,  39
1012,  52,  53,  62,  61
1013,  53,  54,  63,  62
1014,  54,  55,  64,  63
1015,  55,  56,  65,  64
1016,  56,  57,  66,  65
1017,  57,  58,  67,  66
1018,  58,  59,  68,  67
1019,  59,  60,  69,  68
1020,  60,  16,  17,  69
** ... 90 like lines cut
**
*Nset, nset=all, generate
   1,  132,    1
*Elset, elset=all, generate
   1,  110,    1
*Nset, nset=left
  2,  3,  6, 16, 17, 18, 19, 20, 21, 22, 23, 51
*Elset, elset=left
  10,  20,  30,  40,  50,  60,  70,  80,  90,  91, 101
*Nset, nset=bottom
  3,  4, 24, 25, 26, 27, 28, 29, 30, 31, 32
*Elset, elset=bottom, generate
 81,  90,   1
*Nset, nset=right
  1,  4,  5, 33, 34, 35, 36, 37, 38, 39, 40, 41
*Elset, elset=right
   1,  11,  21,  31,  41,  51,  61,  71,  81, 100, 110
*Nset, nset=top
  5,  6, 42, 43, 44, 45, 46, 47, 48, 49, 50
*Elset, elset=top, generate
 101,  110,    1
**
*Elset, elset=elDummy, generate 
1001,1110,1 
**
**
** Make an element, of type CPE4T, which is not connected to anything.
** This element makes available the coupled thermal-displacement step,
** and has no effect on the real problem.
** We refer to this element as the ‘‘extra’’ element.
*Node
999996, 0.0, 0.0
999997, .00001, 0.0
999998, .00001, .00001
999999, 0.0, .00001
*Nset, nset=extraElement
999996,999997,999998,999999
*Element, Type=CPE4T
999999,999996,999997,999998,999999
*Elset,elset=extraElement
999999
**
************************************************************************
** PARAMETERS
************************************************************************
**
*Parameter
**
** initial oxygen concentration
CR0 = 2.80
**
** temperature (Kelvin)
theta = 100.0 + 273.0
**
** Shear modulus (Pa)
Gshr = 5.0e7
**
** Hourglass stiffness (Pa)
Ghour = 0.005*Gshr
**
** total aging time (seconds)
tf = 3600.0*60.0
** total ramp time (seconds)
tRamp = 3600.0*2.0
**
**
************************************************************************
** MATERIAL DEFINITION
************************************************************************
**
** Material properties for the UEL Elements
*uel property,elset=all
** G      Kbulk   gama  chi   Vmol      Rgas 
 0.5e9,  1.0e6, -0.01, 0.1, 0.14675, 8.3145
** theta nlSdv ngSdv
  <theta>, 2,4
**
** Material properties for the ‘‘dummy’’ elements
** Notice the very small elastic modulus.
*Solid section, elset=ElDummy, material=DummyMaterial
**Hourglass stiffness
 <Ghour>
**
*Material, name=DummyMaterial
*Elastic
1.e-20
*User output variables
4
**
** Material properties for the ‘‘extra’’ element.
** These are irrelevant and need not be modified.
*Solid section, elset=extraElement, material=extraMaterial
*Material, name=extraMaterial
*Elastic
1.e-20
*Conductivity
1.0
*Density
1.0
*Specific heat
1.0
**
**
************************************************************************
** INITIAL CONDITIONS
************************************************************************
** Define the initial oxygen concentration
*Initial conditions, type=temperature
all, 0.0
**
** Define an arbitrary initial condition for the ‘‘extra’’ element.
*Initial conditions, type=temperature
extraElement, 0.0
**
************************************************************************
** AMPLITUDE DEFINITION
************************************************************************
**
** Define the oxygen concentration amplitude we will apply to the body
*Amplitude, name=ocProfile
0.0,0.0,<tRamp>,<CR0>,<tf>,<CR0>
** 
*Amplitude, name=dispProfile
 0.0,0.0,<tRamp>,3.0e-05,<tf>,3.0e-05
** 
**
************************************************************************
** STEP DEFINITION
************************************************************************
** 
*Step, name=Step-1, nlgeom=yes, inc=100000
*Coupled temperature-displacement, deltmx=100.0
10.0,<tf>,1.e-6,100.0
*CONTROLS, PARAMETERS=FIELD, FIELD=displacement
0.005,0.01,0.01,0.01,2.0e-2,1.e-3,1.e-3,1.e-5
1.0,1.e-5,1.e-6
*Controls, Parameters=Line Search
10,1.0,0.0001,0.25,0.10
*Controls, Parameters=Time Incrementation
,,,,,,,10,,,,,,
**
** BOUNDARY CONDITIONS
** 
*Boundary
left, XSYMM
bottom, YSYMM
right, XSYMM
**
*Boundary, amplitude=dispProfile
top, 2, 2, 1
**
*Boundary, amplitude=ocProfile
left,11,11,1.0
right,11,11,1.0
**
** Restrict ALL degrees of freedom of the ‘‘extra’’ element
*Boundary
extraElement,encastre
extraElement,11,11,0.0
**
*Output, field, number interval=100, time marks=no
*node output, nset=all
u,nt
*Node output, nset=extraElement
u
*Element output, elset=ElDummy
uvarm,le
**
*End Step
